     RDKit          3D

  8  8  0  0  0  0  0  0  0  0999 V2000
   20.0000   20.0000   20.0000 C   0  0  0  0  0  0  0  0  0  0  0  0
   21.0000   20.0000   20.0000 C   0  0  0  0  0  0  0  0  0  0  0  0
   21.0000   21.0000   20.0000 C   0  0  0  0  0  0  0  0  0  0  0  0
   20.0000   21.0000   20.0000 C   0  0  0  0  0  0  0  0  0  0  0  0
   20.5000   20.5000   21.0000 C   0  0  0  0  0  0  0  0  0  0  0  0
   19.5000   20.5000   21.0000 N   0  0  0  0  0  0  0  0  0  0  0  0
   20.5000   19.5000   21.0000 O   0  0  0  0  0  0  0  0  0  0  0  0
   20.5000   20.5000   19.0000 C   0  0  0  0  0  0  0  0  0  0  0  0
  1  2  1  0  0  0  0
  2  3  1  0  0  0  0
  3  4  1  0  0  0  0
  4  1  1  0  0  0  0
  1  5  1  0  0  0  0
  5  6  1  0  0  0  0
  5  7  1  0  0  0  0
  1  8  1  0  0  0  0
M  END
$$$$ 